 .Wgn file Subbasin: 195 STATION NAME:314684 2/7/2013 12:00:00 AM ArcSWAT 2012.10_1.5
  LATITUDE =  35.75 LONGITUDE = -78.83
  ELEV [m] = 137.20
  RAIN_YRS =  31.00
 10.16 12.55 16.79 22.00 25.91 29.89 31.59 30.86 27.38 22.11 17.30 12.07
 -1.08  0.17  3.71  8.31 13.09 18.13 20.39 19.63 15.93  9.33  4.42  0.51
  6.07  6.08  5.90  5.34  4.17  3.35  2.94  3.19  3.80  4.45  5.17  5.87
  5.45  4.95  5.07  4.74  4.05  3.07  2.05  2.46  3.87  4.89  5.19  5.32
 91.84 83.18108.91 77.24 88.64111.43116.86111.69104.30 90.00 76.31 78.39
  9.44  9.21 11.84  8.94  9.63 13.33 11.14 13.95 21.43 17.44 10.66 10.15
  1.79  2.02  2.28  2.09  1.90  4.03  2.74  2.33  3.99  3.58  2.13  2.19
  0.24  0.24  0.22  0.22  0.21  0.26  0.30  0.22  0.19  0.14  0.18  0.20
  0.48  0.51  0.52  0.48  0.51  0.55  0.52  0.51  0.43  0.50  0.46  0.44
  9.76  9.18  9.63  8.90  9.33 11.00 12.00  9.57  7.33  6.97  7.34  8.07
  8.72  8.09 11.20  7.95  8.99 11.62 10.59 13.05 13.47 12.85  8.47  9.24
 10.98 14.13 18.62 23.36 25.79 26.98 26.28 23.59 20.10 15.89 11.86 10.19
 12.92 13.81 16.15 19.11 22.14 35.37 37.93 37.26 34.40 20.54 16.99 14.08
  3.29  3.36  3.67  3.64  3.24  2.93  2.79  2.63  2.77  2.55  2.76  2.94
