 .Sol file Watershed HRU:2098 Subbasin:208 HRU:2 Luse:URLD Soil: NC074 Slope: 2-5 2/7/2013 12:00:00 AM ArcSWAT 2012.10_1.5
 Soil Name: HIWASSEE
 Soil Hydrologic Group: B
 Maximum rooting depth(m) : 1778.00
 Porosity fraction from which anions are excluded: 0.500
 Crack volume potential of soil: 0.500
 Texture 1                : L-SIC-L
 Depth                [mm]:      177.80     1549.40     1778.00
 Bulk Density Moist [g/cc]:        1.45        1.38        1.55
 Ave. AW Incl. Rock Frag  :        0.16        0.18        0.14
 Ksat. (est.)      [mm/hr]:       16.00        1.10       12.00
 Organic Carbon [weight %]:        0.73        0.15        0.06
 Clay           [weight %]:       22.50       47.50       21.00
 Silt           [weight %]:       37.70       46.98       37.35
 Sand           [weight %]:       39.80        5.52       41.65
 Rock Fragments   [vol. %]:        1.93        1.83        6.29
 Soil Albedo (Moist)      :        0.06        0.17        0.21
 Erosion K                :        0.28        0.28        0.28
 Salinity (EC, Form 5)    :        0.00        0.00        0.00
 Soil pH                  :        0.00        0.00        0.00
 Soil CACO3               :        0.00        0.00        0.00
                              
