 .Wgn file Subbasin: 210 STATION NAME:CHERRY 2/7/2013 12:00:00 AM ArcSWAT 2012.10_1.5
  LATITUDE =  35.67 LONGITUDE = -78.70
  ELEV [m] = 134.10
  RAIN_YRS =  31.00
 10.50 12.95 17.24 22.36 26.29 30.16 31.77 31.00 27.62 22.36 17.36 12.31
 -0.69  0.65  4.15  8.71 13.41 18.34 20.58 19.91 16.27  9.77  4.86  0.86
  5.82  5.79  5.53  4.92  3.76  3.09  2.61  2.93  3.47  4.23  4.93  5.65
  5.39  5.00  5.10  4.76  3.93  3.01  2.02  2.43  3.79  4.91  5.18  5.29
 93.22 81.74107.12 75.35 86.17113.08115.70114.61106.54 87.77 78.23 75.58
  9.52  8.29 10.61  8.55  9.04 11.52  9.04 10.95 18.42 13.30  9.65  8.15
  1.96  2.13  2.43  2.06  2.42  2.93  2.62  2.70  4.90  2.24  2.34  1.59
  0.24  0.25  0.21  0.19  0.22  0.25  0.31  0.25  0.18  0.15  0.19  0.19
  0.50  0.53  0.57  0.55  0.56  0.63  0.63  0.59  0.58  0.55  0.50  0.51
 10.14  9.54 10.23  9.13 10.27 12.17 14.07 11.77  8.90  7.71  8.17  8.79
  8.66  7.50 10.09  7.89  8.66 10.74  9.49 10.55 12.86 10.89  7.74  8.10
 10.98 14.13 18.62 23.36 25.79 26.98 26.28 23.59 20.10 15.89 11.86 10.19
 12.92 13.81 16.15 19.11 22.14 35.37 37.93 37.26 34.40 20.54 16.99 14.08
  3.29  3.36  3.67  3.64  3.24  2.93  2.79  2.63  2.77  2.55  2.76  2.94
