 .Sol file Watershed HRU:1883 Subbasin:189 HRU:10 Luse:URMD Soil: NC061 Slope: 5-10 2/7/2013 12:00:00 AM ArcSWAT 2012.10_1.5
 Soil Name: HERNDON
 Soil Hydrologic Group: B
 Maximum rooting depth(m) : 1727.20
 Porosity fraction from which anions are excluded: 0.500
 Crack volume potential of soil: 0.500
 Texture 1                : SIL-SIC-L
 Depth                [mm]:    228.0285    1216.152    1722.882
 Bulk Density Moist [g/cc]:        1.30        1.45        1.30
 Ave. AW Incl. Rock Frag  :      0.1696      0.1796      0.1397
 Ksat. (est.)      [mm/hr]:        7.90        1.10       15.00
 Organic Carbon [weight %]:        0.44        0.15        0.15
 Clay           [weight %]:       16.00       47.50       18.50
 Silt           [weight %]:       54.32       46.98       38.54
 Sand           [weight %]:       29.68        5.52       42.96
 Rock Fragments   [vol. %]:        4.57        3.07        4.32
 Soil Albedo (Moist)      :        0.10        0.17        0.17
 Erosion K                :        0.43        0.28        0.32
 Salinity (EC, Form 5)    :        0.00        0.00        0.00
 Soil pH                  :        0.00        0.00        0.00
 Soil CACO3               :        0.00        0.00        0.00
                              
